
---------- Begin Simulation Statistics ----------
sim_seconds                                  0.014809                       # Number of seconds simulated
sim_ticks                                 14809068400                       # Number of ticks simulated
final_tick                                14809068400                       # Number of ticks from beginning of simulation (restored from checkpoints and never reset)
sim_freq                                 1000000000000                       # Frequency of simulated ticks
host_inst_rate                                  67154                       # Simulator instruction rate (inst/s)
host_op_rate                                   143451                       # Simulator op (including micro ops) rate (op/s)
host_tick_rate                               26989886                       # Simulator tick rate (ticks/s)
host_mem_usage                               13944152                       # Number of bytes of host memory used
host_seconds                                   548.69                       # Real time elapsed on the host
sim_insts                                    36846426                       # Number of instructions simulated
sim_ops                                      78709829                       # Number of ops (including micro ops) simulated
system.voltage_domain.voltage                       1                       # Voltage in Volts
system.clk_domain.clock                           800                       # Clock period in ticks
system.mem_ctrls.pwrStateResidencyTicks::UNDEFINED  14809068400                       # Cumulative time (in ticks) in various power states
system.mem_ctrls.bytes_read::cpu.inst           22208                       # Number of bytes read from this memory
system.mem_ctrls.bytes_read::cpu.data           29696                       # Number of bytes read from this memory
system.mem_ctrls.bytes_read::cpu.dcache.prefetcher        99456                       # Number of bytes read from this memory
system.mem_ctrls.bytes_read::cpu.icache.prefetcher        96960                       # Number of bytes read from this memory
system.mem_ctrls.bytes_read::l2.prefetcher       550016                       # Number of bytes read from this memory
system.mem_ctrls.bytes_read::total             798336                       # Number of bytes read from this memory
system.mem_ctrls.bytes_inst_read::cpu.inst        22208                       # Number of instructions bytes read from this memory
system.mem_ctrls.bytes_inst_read::total         22208                       # Number of instructions bytes read from this memory
system.mem_ctrls.bytes_written::cam_pipe_datapath         3072                       # Number of bytes written to this memory
system.mem_ctrls.bytes_written::total            3072                       # Number of bytes written to this memory
system.mem_ctrls.num_reads::cpu.inst              347                       # Number of read requests responded to by this memory
system.mem_ctrls.num_reads::cpu.data              464                       # Number of read requests responded to by this memory
system.mem_ctrls.num_reads::cpu.dcache.prefetcher         1554                       # Number of read requests responded to by this memory
system.mem_ctrls.num_reads::cpu.icache.prefetcher         1515                       # Number of read requests responded to by this memory
system.mem_ctrls.num_reads::l2.prefetcher         8594                       # Number of read requests responded to by this memory
system.mem_ctrls.num_reads::total               12474                       # Number of read requests responded to by this memory
system.mem_ctrls.num_writes::cam_pipe_datapath           48                       # Number of write requests responded to by this memory
system.mem_ctrls.num_writes::total                 48                       # Number of write requests responded to by this memory
system.mem_ctrls.bw_read::cpu.inst            1499622                       # Total read bandwidth from this memory (bytes/s)
system.mem_ctrls.bw_read::cpu.data            2005258                       # Total read bandwidth from this memory (bytes/s)
system.mem_ctrls.bw_read::cpu.dcache.prefetcher      6715885                       # Total read bandwidth from this memory (bytes/s)
system.mem_ctrls.bw_read::cpu.icache.prefetcher      6547340                       # Total read bandwidth from this memory (bytes/s)
system.mem_ctrls.bw_read::l2.prefetcher      37140486                       # Total read bandwidth from this memory (bytes/s)
system.mem_ctrls.bw_read::total              53908590                       # Total read bandwidth from this memory (bytes/s)
system.mem_ctrls.bw_inst_read::cpu.inst       1499622                       # Instruction read bandwidth from this memory (bytes/s)
system.mem_ctrls.bw_inst_read::total          1499622                       # Instruction read bandwidth from this memory (bytes/s)
system.mem_ctrls.bw_write::cam_pipe_datapath       207440                       # Write bandwidth from this memory (bytes/s)
system.mem_ctrls.bw_write::total               207440                       # Write bandwidth from this memory (bytes/s)
system.mem_ctrls.bw_total::cam_pipe_datapath       207440                       # Total bandwidth to/from this memory (bytes/s)
system.mem_ctrls.bw_total::cpu.inst           1499622                       # Total bandwidth to/from this memory (bytes/s)
system.mem_ctrls.bw_total::cpu.data           2005258                       # Total bandwidth to/from this memory (bytes/s)
system.mem_ctrls.bw_total::cpu.dcache.prefetcher      6715885                       # Total bandwidth to/from this memory (bytes/s)
system.mem_ctrls.bw_total::cpu.icache.prefetcher      6547340                       # Total bandwidth to/from this memory (bytes/s)
system.mem_ctrls.bw_total::l2.prefetcher     37140486                       # Total bandwidth to/from this memory (bytes/s)
system.mem_ctrls.bw_total::total             54116031                       # Total bandwidth to/from this memory (bytes/s)
system.mem_ctrls.readReqs                       12474                       # Number of read requests accepted
system.mem_ctrls.writeReqs                         48                       # Number of write requests accepted
system.mem_ctrls.readBursts                     12474                       # Number of DRAM read bursts, including those serviced by the write queue
system.mem_ctrls.writeBursts                       48                       # Number of DRAM write bursts, including those merged in the write queue
system.mem_ctrls.bytesReadDRAM                 797312                       # Total number of bytes read from DRAM
system.mem_ctrls.bytesReadWrQ                    1024                       # Total number of bytes read from write queue
system.mem_ctrls.bytesWritten                    2048                       # Total number of bytes written to DRAM
system.mem_ctrls.bytesReadSys                  798336                       # Total read bytes from the system interface side
system.mem_ctrls.bytesWrittenSys                 3072                       # Total written bytes from the system interface side
system.mem_ctrls.servicedByWrQ                     16                       # Number of DRAM read bursts serviced by the write queue
system.mem_ctrls.mergedWrBursts                     0                       # Number of DRAM write bursts merged with an existing one
system.mem_ctrls.neitherReadNorWriteReqs            0                       # Number of requests that are neither read nor write
system.mem_ctrls.perBankRdBursts::0               838                       # Per bank write bursts
system.mem_ctrls.perBankRdBursts::1               885                       # Per bank write bursts
system.mem_ctrls.perBankRdBursts::2              1013                       # Per bank write bursts
system.mem_ctrls.perBankRdBursts::3               895                       # Per bank write bursts
system.mem_ctrls.perBankRdBursts::4              1061                       # Per bank write bursts
system.mem_ctrls.perBankRdBursts::5              1086                       # Per bank write bursts
system.mem_ctrls.perBankRdBursts::6               841                       # Per bank write bursts
system.mem_ctrls.perBankRdBursts::7               648                       # Per bank write bursts
system.mem_ctrls.perBankRdBursts::8               751                       # Per bank write bursts
system.mem_ctrls.perBankRdBursts::9               603                       # Per bank write bursts
system.mem_ctrls.perBankRdBursts::10              569                       # Per bank write bursts
system.mem_ctrls.perBankRdBursts::11              588                       # Per bank write bursts
system.mem_ctrls.perBankRdBursts::12              642                       # Per bank write bursts
system.mem_ctrls.perBankRdBursts::13              681                       # Per bank write bursts
system.mem_ctrls.perBankRdBursts::14              678                       # Per bank write bursts
system.mem_ctrls.perBankRdBursts::15              679                       # Per bank write bursts
system.mem_ctrls.perBankWrBursts::0                14                       # Per bank write bursts
system.mem_ctrls.perBankWrBursts::1                18                       # Per bank write bursts
system.mem_ctrls.perBankWrBursts::2                 0                       # Per bank write bursts
system.mem_ctrls.perBankWrBursts::3                 0                       # Per bank write bursts
system.mem_ctrls.perBankWrBursts::4                 0                       # Per bank write bursts
system.mem_ctrls.perBankWrBursts::5                 0                       # Per bank write bursts
system.mem_ctrls.perBankWrBursts::6                 0                       # Per bank write bursts
system.mem_ctrls.perBankWrBursts::7                 0                       # Per bank write bursts
system.mem_ctrls.perBankWrBursts::8                 0                       # Per bank write bursts
system.mem_ctrls.perBankWrBursts::9                 0                       # Per bank write bursts
system.mem_ctrls.perBankWrBursts::10                0                       # Per bank write bursts
system.mem_ctrls.perBankWrBursts::11                0                       # Per bank write bursts
system.mem_ctrls.perBankWrBursts::12                0                       # Per bank write bursts
system.mem_ctrls.perBankWrBursts::13                0                       # Per bank write bursts
system.mem_ctrls.perBankWrBursts::14                0                       # Per bank write bursts
system.mem_ctrls.perBankWrBursts::15                0                       # Per bank write bursts
system.mem_ctrls.numRdRetry                         0                       # Number of times read queue was full causing retry
system.mem_ctrls.numWrRetry                         0                       # Number of times write queue was full causing retry
system.mem_ctrls.totGap                   14808746407                       # Total gap between requests
system.mem_ctrls.readPktSize::0                     0                       # Read request sizes (log2)
system.mem_ctrls.readPktSize::1                     0                       # Read request sizes (log2)
system.mem_ctrls.readPktSize::2                     0                       # Read request sizes (log2)
system.mem_ctrls.readPktSize::3                     0                       # Read request sizes (log2)
system.mem_ctrls.readPktSize::4                     0                       # Read request sizes (log2)
system.mem_ctrls.readPktSize::5                     0                       # Read request sizes (log2)
system.mem_ctrls.readPktSize::6                 12474                       # Read request sizes (log2)
system.mem_ctrls.writePktSize::0                    0                       # Write request sizes (log2)
system.mem_ctrls.writePktSize::1                    0                       # Write request sizes (log2)
system.mem_ctrls.writePktSize::2                    0                       # Write request sizes (log2)
system.mem_ctrls.writePktSize::3                    0                       # Write request sizes (log2)
system.mem_ctrls.writePktSize::4                    0                       # Write request sizes (log2)
system.mem_ctrls.writePktSize::5                    0                       # Write request sizes (log2)
system.mem_ctrls.writePktSize::6                   48                       # Write request sizes (log2)
system.mem_ctrls.rdQLenPdf::0                    1312                       # What read queue length does an incoming req see
system.mem_ctrls.rdQLenPdf::1                     996                       # What read queue length does an incoming req see
system.mem_ctrls.rdQLenPdf::2                     879                       # What read queue length does an incoming req see
system.mem_ctrls.rdQLenPdf::3                     819                       # What read queue length does an incoming req see
system.mem_ctrls.rdQLenPdf::4                     718                       # What read queue length does an incoming req see
system.mem_ctrls.rdQLenPdf::5                     663                       # What read queue length does an incoming req see
system.mem_ctrls.rdQLenPdf::6                     640                       # What read queue length does an incoming req see
system.mem_ctrls.rdQLenPdf::7                     612                       # What read queue length does an incoming req see
system.mem_ctrls.rdQLenPdf::8                     582                       # What read queue length does an incoming req see
system.mem_ctrls.rdQLenPdf::9                     617                       # What read queue length does an incoming req see
system.mem_ctrls.rdQLenPdf::10                    710                       # What read queue length does an incoming req see
system.mem_ctrls.rdQLenPdf::11                    648                       # What read queue length does an incoming req see
system.mem_ctrls.rdQLenPdf::12                   1277                       # What read queue length does an incoming req see
system.mem_ctrls.rdQLenPdf::13                    468                       # What read queue length does an incoming req see
system.mem_ctrls.rdQLenPdf::14                    445                       # What read queue length does an incoming req see
system.mem_ctrls.rdQLenPdf::15                    415                       # What read queue length does an incoming req see
system.mem_ctrls.rdQLenPdf::16                    385                       # What read queue length does an incoming req see
system.mem_ctrls.rdQLenPdf::17                    195                       # What read queue length does an incoming req see
system.mem_ctrls.rdQLenPdf::18                     48                       # What read queue length does an incoming req see
system.mem_ctrls.rdQLenPdf::19                     29                       # What read queue length does an incoming req see
system.mem_ctrls.rdQLenPdf::20                      0                       # What read queue length does an incoming req see
system.mem_ctrls.rdQLenPdf::21                      0                       # What read queue length does an incoming req see
system.mem_ctrls.rdQLenPdf::22                      0                       # What read queue length does an incoming req see
system.mem_ctrls.rdQLenPdf::23                      0                       # What read queue length does an incoming req see
system.mem_ctrls.rdQLenPdf::24                      0                       # What read queue length does an incoming req see
system.mem_ctrls.rdQLenPdf::25                      0                       # What read queue length does an incoming req see
system.mem_ctrls.rdQLenPdf::26                      0                       # What read queue length does an incoming req see
system.mem_ctrls.rdQLenPdf::27                      0                       # What read queue length does an incoming req see
system.mem_ctrls.rdQLenPdf::28                      0                       # What read queue length does an incoming req see
system.mem_ctrls.rdQLenPdf::29                      0                       # What read queue length does an incoming req see
system.mem_ctrls.rdQLenPdf::30                      0                       # What read queue length does an incoming req see
system.mem_ctrls.rdQLenPdf::31                      0                       # What read queue length does an incoming req see
system.mem_ctrls.wrQLenPdf::0                       1                       # What write queue length does an incoming req see
system.mem_ctrls.wrQLenPdf::1                       1                       # What write queue length does an incoming req see
system.mem_ctrls.wrQLenPdf::2                       1                       # What write queue length does an incoming req see
system.mem_ctrls.wrQLenPdf::3                       1                       # What write queue length does an incoming req see
system.mem_ctrls.wrQLenPdf::4                       1                       # What write queue length does an incoming req see
system.mem_ctrls.wrQLenPdf::5                       1                       # What write queue length does an incoming req see
system.mem_ctrls.wrQLenPdf::6                       1                       # What write queue length does an incoming req see
system.mem_ctrls.wrQLenPdf::7                       1                       # What write queue length does an incoming req see
system.mem_ctrls.wrQLenPdf::8                       1                       # What write queue length does an incoming req see
system.mem_ctrls.wrQLenPdf::9                       1                       # What write queue length does an incoming req see
system.mem_ctrls.wrQLenPdf::10                      1                       # What write queue length does an incoming req see
system.mem_ctrls.wrQLenPdf::11                      1                       # What write queue length does an incoming req see
system.mem_ctrls.wrQLenPdf::12                      1                       # What write queue length does an incoming req see
system.mem_ctrls.wrQLenPdf::13                      1                       # What write queue length does an incoming req see
system.mem_ctrls.wrQLenPdf::14                      1                       # What write queue length does an incoming req see
system.mem_ctrls.wrQLenPdf::15                      1                       # What write queue length does an incoming req see
system.mem_ctrls.wrQLenPdf::16                      1                       # What write queue length does an incoming req see
system.mem_ctrls.wrQLenPdf::17                      1                       # What write queue length does an incoming req see
system.mem_ctrls.wrQLenPdf::18                      1                       # What write queue length does an incoming req see
system.mem_ctrls.wrQLenPdf::19                      1                       # What write queue length does an incoming req see
system.mem_ctrls.wrQLenPdf::20                      1                       # What write queue length does an incoming req see
system.mem_ctrls.wrQLenPdf::21                      1                       # What write queue length does an incoming req see
system.mem_ctrls.wrQLenPdf::22                      1                       # What write queue length does an incoming req see
system.mem_ctrls.wrQLenPdf::23                      1                       # What write queue length does an incoming req see
system.mem_ctrls.wrQLenPdf::24                      1                       # What write queue length does an incoming req see
system.mem_ctrls.wrQLenPdf::25                      1                       # What write queue length does an incoming req see
system.mem_ctrls.wrQLenPdf::26                      1                       # What write queue length does an incoming req see
system.mem_ctrls.wrQLenPdf::27                      1                       # What write queue length does an incoming req see
system.mem_ctrls.wrQLenPdf::28                      1                       # What write queue length does an incoming req see
system.mem_ctrls.wrQLenPdf::29                      1                       # What write queue length does an incoming req see
system.mem_ctrls.wrQLenPdf::30                      1                       # What write queue length does an incoming req see
system.mem_ctrls.wrQLenPdf::31                      1                       # What write queue length does an incoming req see
system.mem_ctrls.wrQLenPdf::32                      1                       # What write queue length does an incoming req see
system.mem_ctrls.wrQLenPdf::33                      1                       # What write queue length does an incoming req see
system.mem_ctrls.wrQLenPdf::34                      1                       # What write queue length does an incoming req see
system.mem_ctrls.wrQLenPdf::35                      1                       # What write queue length does an incoming req see
system.mem_ctrls.wrQLenPdf::36                      1                       # What write queue length does an incoming req see
system.mem_ctrls.wrQLenPdf::37                      1                       # What write queue length does an incoming req see
system.mem_ctrls.wrQLenPdf::38                      1                       # What write queue length does an incoming req see
system.mem_ctrls.wrQLenPdf::39                      1                       # What write queue length does an incoming req see
system.mem_ctrls.wrQLenPdf::40                      1                       # What write queue length does an incoming req see
system.mem_ctrls.wrQLenPdf::41                      1                       # What write queue length does an incoming req see
system.mem_ctrls.wrQLenPdf::42                      1                       # What write queue length does an incoming req see
system.mem_ctrls.wrQLenPdf::43                      1                       # What write queue length does an incoming req see
system.mem_ctrls.wrQLenPdf::44                      1                       # What write queue length does an incoming req see
system.mem_ctrls.wrQLenPdf::45                      1                       # What write queue length does an incoming req see
system.mem_ctrls.wrQLenPdf::46                      1                       # What write queue length does an incoming req see
system.mem_ctrls.wrQLenPdf::47                      1                       # What write queue length does an incoming req see
system.mem_ctrls.wrQLenPdf::48                      0                       # What write queue length does an incoming req see
system.mem_ctrls.wrQLenPdf::49                      0                       # What write queue length does an incoming req see
system.mem_ctrls.wrQLenPdf::50                      0                       # What write queue length does an incoming req see
system.mem_ctrls.wrQLenPdf::51                      0                       # What write queue length does an incoming req see
system.mem_ctrls.wrQLenPdf::52                      0                       # What write queue length does an incoming req see
system.mem_ctrls.wrQLenPdf::53                      0                       # What write queue length does an incoming req see
system.mem_ctrls.wrQLenPdf::54                      0                       # What write queue length does an incoming req see
system.mem_ctrls.wrQLenPdf::55                      0                       # What write queue length does an incoming req see
system.mem_ctrls.wrQLenPdf::56                      0                       # What write queue length does an incoming req see
system.mem_ctrls.wrQLenPdf::57                      0                       # What write queue length does an incoming req see
system.mem_ctrls.wrQLenPdf::58                      0                       # What write queue length does an incoming req see
system.mem_ctrls.wrQLenPdf::59                      0                       # What write queue length does an incoming req see
system.mem_ctrls.wrQLenPdf::60                      0                       # What write queue length does an incoming req see
system.mem_ctrls.wrQLenPdf::61                      0                       # What write queue length does an incoming req see
system.mem_ctrls.wrQLenPdf::62                      0                       # What write queue length does an incoming req see
system.mem_ctrls.wrQLenPdf::63                      0                       # What write queue length does an incoming req see
system.mem_ctrls.bytesPerActivate::samples         1642                       # Bytes accessed per row activation
system.mem_ctrls.bytesPerActivate::mean    486.781973                       # Bytes accessed per row activation
system.mem_ctrls.bytesPerActivate::gmean   296.629948                       # Bytes accessed per row activation
system.mem_ctrls.bytesPerActivate::stdev   397.736236                       # Bytes accessed per row activation
system.mem_ctrls.bytesPerActivate::0-127          394     24.00%     24.00% # Bytes accessed per row activation
system.mem_ctrls.bytesPerActivate::128-255          291     17.72%     41.72% # Bytes accessed per row activation
system.mem_ctrls.bytesPerActivate::256-383          148      9.01%     50.73% # Bytes accessed per row activation
system.mem_ctrls.bytesPerActivate::384-511           96      5.85%     56.58% # Bytes accessed per row activation
system.mem_ctrls.bytesPerActivate::512-639           84      5.12%     61.69% # Bytes accessed per row activation
system.mem_ctrls.bytesPerActivate::640-767           69      4.20%     65.90% # Bytes accessed per row activation
system.mem_ctrls.bytesPerActivate::768-895           51      3.11%     69.00% # Bytes accessed per row activation
system.mem_ctrls.bytesPerActivate::896-1023           56      3.41%     72.41% # Bytes accessed per row activation
system.mem_ctrls.bytesPerActivate::1024-1151          453     27.59%    100.00% # Bytes accessed per row activation
system.mem_ctrls.bytesPerActivate::total         1642                       # Bytes accessed per row activation
system.mem_ctrls.rdPerTurnAround::samples            1                       # Reads before turning the bus around for writes
system.mem_ctrls.rdPerTurnAround::mean          10234                       # Reads before turning the bus around for writes
system.mem_ctrls.rdPerTurnAround::gmean  10234.000000                       # Reads before turning the bus around for writes
system.mem_ctrls.rdPerTurnAround::stdev           nan                       # Reads before turning the bus around for writes
system.mem_ctrls.rdPerTurnAround::9728-10239            1    100.00%    100.00% # Reads before turning the bus around for writes
system.mem_ctrls.rdPerTurnAround::total             1                       # Reads before turning the bus around for writes
system.mem_ctrls.wrPerTurnAround::samples            1                       # Writes before turning the bus around for reads
system.mem_ctrls.wrPerTurnAround::mean             32                       # Writes before turning the bus around for reads
system.mem_ctrls.wrPerTurnAround::gmean            32                       # Writes before turning the bus around for reads
system.mem_ctrls.wrPerTurnAround::stdev           nan                       # Writes before turning the bus around for reads
system.mem_ctrls.wrPerTurnAround::32                1    100.00%    100.00% # Writes before turning the bus around for reads
system.mem_ctrls.wrPerTurnAround::total             1                       # Writes before turning the bus around for reads
system.mem_ctrls.totQLat                    836874627                       # Total ticks spent queuing
system.mem_ctrls.totMemAccLat              1117179627                       # Total ticks spent from burst creation until serviced by the DRAM
system.mem_ctrls.totBusLat                   62290000                       # Total ticks spent in databus transfers
system.mem_ctrls.avgQLat                     67175.68                       # Average queueing delay per DRAM burst
system.mem_ctrls.avgBusLat                    5000.00                       # Average bus latency per DRAM burst
system.mem_ctrls.avgMemAccLat                89675.68                       # Average memory access latency per DRAM burst
system.mem_ctrls.avgRdBW                        53.84                       # Average DRAM read bandwidth in MiByte/s
system.mem_ctrls.avgWrBW                         0.14                       # Average achieved write bandwidth in MiByte/s
system.mem_ctrls.avgRdBWSys                     53.91                       # Average system read bandwidth in MiByte/s
system.mem_ctrls.avgWrBWSys                      0.21                       # Average system write bandwidth in MiByte/s
system.mem_ctrls.peakBW                      12800.00                       # Theoretical peak bandwidth in MiByte/s
system.mem_ctrls.busUtil                         0.42                       # Data bus utilization in percentage
system.mem_ctrls.busUtilRead                     0.42                       # Data bus utilization in percentage for reads
system.mem_ctrls.busUtilWrite                    0.00                       # Data bus utilization in percentage for writes
system.mem_ctrls.avgRdQLen                       3.06                       # Average read queue length when enqueuing
system.mem_ctrls.avgWrQLen                       1.18                       # Average write queue length when enqueuing
system.mem_ctrls.readRowHits                    10818                       # Number of row buffer hits during reads
system.mem_ctrls.writeRowHits                      29                       # Number of row buffer hits during writes
system.mem_ctrls.readRowHitRate                 86.84                       # Row buffer hit rate for reads
system.mem_ctrls.writeRowHitRate                60.42                       # Row buffer hit rate for writes
system.mem_ctrls.avgGap                    1182618.30                       # Average gap between requests
system.mem_ctrls.pageHitRate                    86.73                       # Row buffer hit rate, read and write combined
system.mem_ctrls_0.actEnergy             3027091.400000                       # Energy for activate commands per rank (pJ)
system.mem_ctrls_0.preEnergy             1472486.400000                       # Energy for precharge commands per rank (pJ)
system.mem_ctrls_0.readEnergy                36930894                       # Energy for read commands per rank (pJ)
system.mem_ctrls_0.writeEnergy           127424.000000                       # Energy for write commands per rank (pJ)
system.mem_ctrls_0.refreshEnergy         36117388.800000                       # Energy for refresh commands per rank (pJ)
system.mem_ctrls_0.actBackEnergy         15636564.300000                       # Energy for active background per rank (pJ)
system.mem_ctrls_0.preBackEnergy         1349213.400000                       # Energy for precharge background per rank (pJ)
system.mem_ctrls_0.actPowerDownEnergy    19313451.500000                       # Energy for active power-down per rank (pJ)
system.mem_ctrls_0.prePowerDownEnergy         3942609                       # Energy for precharge power-down per rank (pJ)
system.mem_ctrls_0.selfRefreshEnergy     70817306.512500                       # Energy for self refresh per rank (pJ)
system.mem_ctrls_0.totalEnergy           189196873.687500                       # Total energy per rank (pJ)
system.mem_ctrls_0.averagePower             12.775744                       # Core power per rank (mW)
system.mem_ctrls_0.totalIdleTime          14630877860                       # Total Idle time Per DRAM Rank
system.mem_ctrls_0.memoryStateTime::IDLE      1232389                       # Time in different power states
system.mem_ctrls_0.memoryStateTime::REF      84270000                       # Time in different power states
system.mem_ctrls_0.memoryStateTime::SREF  13364400907                       # Time in different power states
system.mem_ctrls_0.memoryStateTime::PRE_PDN    532781168                       # Time in different power states
system.mem_ctrls_0.memoryStateTime::ACT      92590658                       # Time in different power states
system.mem_ctrls_0.memoryStateTime::ACT_PDN    733793278                       # Time in different power states
system.mem_ctrls_1.actEnergy             1961385.200000                       # Energy for activate commands per rank (pJ)
system.mem_ctrls_1.preEnergy             955046.400000                       # Energy for precharge commands per rank (pJ)
system.mem_ctrls_1.readEnergy                26380662                       # Energy for read commands per rank (pJ)
system.mem_ctrls_1.writeEnergy                      0                       # Energy for write commands per rank (pJ)
system.mem_ctrls_1.refreshEnergy         18370051.200000                       # Energy for refresh commands per rank (pJ)
system.mem_ctrls_1.actBackEnergy         9613091.150000                       # Energy for active background per rank (pJ)
system.mem_ctrls_1.preBackEnergy         773551.800000                       # Energy for precharge background per rank (pJ)
system.mem_ctrls_1.actPowerDownEnergy    10351968.550000                       # Energy for active power-down per rank (pJ)
system.mem_ctrls_1.prePowerDownEnergy    1840523.375000                       # Energy for precharge power-down per rank (pJ)
system.mem_ctrls_1.selfRefreshEnergy     70177958.700000                       # Energy for self refresh per rank (pJ)
system.mem_ctrls_1.totalEnergy           140636088.975000                       # Total energy per rank (pJ)
system.mem_ctrls_1.averagePower              9.496620                       # Core power per rank (mW)
system.mem_ctrls_1.totalIdleTime          14700006110                       # Total Idle time Per DRAM Rank
system.mem_ctrls_1.memoryStateTime::IDLE       991925                       # Time in different power states
system.mem_ctrls_1.memoryStateTime::REF      42832500                       # Time in different power states
system.mem_ctrls_1.memoryStateTime::SREF  14058217400                       # Time in different power states
system.mem_ctrls_1.memoryStateTime::PRE_PDN    248720799                       # Time in different power states
system.mem_ctrls_1.memoryStateTime::ACT      64978971                       # Time in different power states
system.mem_ctrls_1.memoryStateTime::ACT_PDN    393326805                       # Time in different power states
system.pwrStateResidencyTicks::UNDEFINED  14809068400                       # Cumulative time (in ticks) in various power states
system.cpu_voltage_domain.voltage                   1                       # Voltage in Volts
system.smv_datapath.clk_domain.clock             1000                       # Clock period in ticks
system.aladdin_traffic_generator.pwrStateResidencyTicks::UNDEFINED  14809068400                       # Cumulative time (in ticks) in various power states
system.cam_pipe_datapath.clk_domain.clock         1000                       # Clock period in ticks
system.cam_pipe_datapath.pwrStateResidencyTicks::UNDEFINED  14809068400                       # Cumulative time (in ticks) in various power states
system.cam_pipe_datapath.cache_queue_reads            0                       # Number of reads to the cam_pipe_datapath.cache_queue
system.cam_pipe_datapath.cache_queue_writes            0                       # Number of writes to the cam_pipe_datapath.cache_queue
system.cam_pipe_datapath.total_dcache_loads            0                       # Total number of dcache loads
system.cam_pipe_datapath.total_dcache_stores            0                       # Total number of dcache stores.
system.cam_pipe_datapath.dcache_latency::samples            0                       # Histogram of dcache total access latency
system.cam_pipe_datapath.dcache_latency::mean          nan                       # Histogram of dcache total access latency
system.cam_pipe_datapath.dcache_latency::gmean          nan                       # Histogram of dcache total access latency
system.cam_pipe_datapath.dcache_latency::stdev          nan                       # Histogram of dcache total access latency
system.cam_pipe_datapath.dcache_latency::0            0                       # Histogram of dcache total access latency
system.cam_pipe_datapath.dcache_latency::1            0                       # Histogram of dcache total access latency
system.cam_pipe_datapath.dcache_latency::2            0                       # Histogram of dcache total access latency
system.cam_pipe_datapath.dcache_latency::3            0                       # Histogram of dcache total access latency
system.cam_pipe_datapath.dcache_latency::4            0                       # Histogram of dcache total access latency
system.cam_pipe_datapath.dcache_latency::5            0                       # Histogram of dcache total access latency
system.cam_pipe_datapath.dcache_latency::6            0                       # Histogram of dcache total access latency
system.cam_pipe_datapath.dcache_latency::7            0                       # Histogram of dcache total access latency
system.cam_pipe_datapath.dcache_latency::8            0                       # Histogram of dcache total access latency
system.cam_pipe_datapath.dcache_latency::9            0                       # Histogram of dcache total access latency
system.cam_pipe_datapath.dcache_latency::10            0                       # Histogram of dcache total access latency
system.cam_pipe_datapath.dcache_latency::11            0                       # Histogram of dcache total access latency
system.cam_pipe_datapath.dcache_latency::12            0                       # Histogram of dcache total access latency
system.cam_pipe_datapath.dcache_latency::13            0                       # Histogram of dcache total access latency
system.cam_pipe_datapath.dcache_latency::14            0                       # Histogram of dcache total access latency
system.cam_pipe_datapath.dcache_latency::15            0                       # Histogram of dcache total access latency
system.cam_pipe_datapath.dcache_latency::16            0                       # Histogram of dcache total access latency
system.cam_pipe_datapath.dcache_latency::17            0                       # Histogram of dcache total access latency
system.cam_pipe_datapath.dcache_latency::18            0                       # Histogram of dcache total access latency
system.cam_pipe_datapath.dcache_latency::19            0                       # Histogram of dcache total access latency
system.cam_pipe_datapath.dcache_latency::20            0                       # Histogram of dcache total access latency
system.cam_pipe_datapath.dcache_latency::21            0                       # Histogram of dcache total access latency
system.cam_pipe_datapath.dcache_latency::22            0                       # Histogram of dcache total access latency
system.cam_pipe_datapath.dcache_latency::23            0                       # Histogram of dcache total access latency
system.cam_pipe_datapath.dcache_latency::24            0                       # Histogram of dcache total access latency
system.cam_pipe_datapath.dcache_latency::25            0                       # Histogram of dcache total access latency
system.cam_pipe_datapath.dcache_latency::26            0                       # Histogram of dcache total access latency
system.cam_pipe_datapath.dcache_latency::27            0                       # Histogram of dcache total access latency
system.cam_pipe_datapath.dcache_latency::28            0                       # Histogram of dcache total access latency
system.cam_pipe_datapath.dcache_latency::29            0                       # Histogram of dcache total access latency
system.cam_pipe_datapath.dcache_latency::total            0                       # Histogram of dcache total access latency
system.cam_pipe_datapath.dcache_queue_time::samples            0                       # Histogram of time dcache request spent in queue
system.cam_pipe_datapath.dcache_queue_time::mean          nan                       # Histogram of time dcache request spent in queue
system.cam_pipe_datapath.dcache_queue_time::gmean          nan                       # Histogram of time dcache request spent in queue
system.cam_pipe_datapath.dcache_queue_time::stdev          nan                       # Histogram of time dcache request spent in queue
system.cam_pipe_datapath.dcache_queue_time::0            0                       # Histogram of time dcache request spent in queue
system.cam_pipe_datapath.dcache_queue_time::1            0                       # Histogram of time dcache request spent in queue
system.cam_pipe_datapath.dcache_queue_time::2            0                       # Histogram of time dcache request spent in queue
system.cam_pipe_datapath.dcache_queue_time::3            0                       # Histogram of time dcache request spent in queue
system.cam_pipe_datapath.dcache_queue_time::4            0                       # Histogram of time dcache request spent in queue
system.cam_pipe_datapath.dcache_queue_time::5            0                       # Histogram of time dcache request spent in queue
system.cam_pipe_datapath.dcache_queue_time::6            0                       # Histogram of time dcache request spent in queue
system.cam_pipe_datapath.dcache_queue_time::7            0                       # Histogram of time dcache request spent in queue
system.cam_pipe_datapath.dcache_queue_time::8            0                       # Histogram of time dcache request spent in queue
system.cam_pipe_datapath.dcache_queue_time::9            0                       # Histogram of time dcache request spent in queue
system.cam_pipe_datapath.dcache_queue_time::10            0                       # Histogram of time dcache request spent in queue
system.cam_pipe_datapath.dcache_queue_time::11            0                       # Histogram of time dcache request spent in queue
system.cam_pipe_datapath.dcache_queue_time::12            0                       # Histogram of time dcache request spent in queue
system.cam_pipe_datapath.dcache_queue_time::13            0                       # Histogram of time dcache request spent in queue
system.cam_pipe_datapath.dcache_queue_time::14            0                       # Histogram of time dcache request spent in queue
system.cam_pipe_datapath.dcache_queue_time::15            0                       # Histogram of time dcache request spent in queue
system.cam_pipe_datapath.dcache_queue_time::16            0                       # Histogram of time dcache request spent in queue
system.cam_pipe_datapath.dcache_queue_time::17            0                       # Histogram of time dcache request spent in queue
system.cam_pipe_datapath.dcache_queue_time::18            0                       # Histogram of time dcache request spent in queue
system.cam_pipe_datapath.dcache_queue_time::19            0                       # Histogram of time dcache request spent in queue
system.cam_pipe_datapath.dcache_queue_time::20            0                       # Histogram of time dcache request spent in queue
system.cam_pipe_datapath.dcache_queue_time::21            0                       # Histogram of time dcache request spent in queue
system.cam_pipe_datapath.dcache_queue_time::22            0                       # Histogram of time dcache request spent in queue
system.cam_pipe_datapath.dcache_queue_time::23            0                       # Histogram of time dcache request spent in queue
system.cam_pipe_datapath.dcache_queue_time::24            0                       # Histogram of time dcache request spent in queue
system.cam_pipe_datapath.dcache_queue_time::25            0                       # Histogram of time dcache request spent in queue
system.cam_pipe_datapath.dcache_queue_time::26            0                       # Histogram of time dcache request spent in queue
system.cam_pipe_datapath.dcache_queue_time::27            0                       # Histogram of time dcache request spent in queue
system.cam_pipe_datapath.dcache_queue_time::28            0                       # Histogram of time dcache request spent in queue
system.cam_pipe_datapath.dcache_queue_time::29            0                       # Histogram of time dcache request spent in queue
system.cam_pipe_datapath.dcache_queue_time::total            0                       # Histogram of time dcache request spent in queue
system.cam_pipe_datapath.total_acp_loads            0                       # Total number of ACP loads
system.cam_pipe_datapath.total_acp_stores            0                       # Total number of ACP stores.
system.cam_pipe_datapath.acp_latency::samples            0                       # Histogram of ACP transaction total latency
system.cam_pipe_datapath.acp_latency::mean          nan                       # Histogram of ACP transaction total latency
system.cam_pipe_datapath.acp_latency::gmean          nan                       # Histogram of ACP transaction total latency
system.cam_pipe_datapath.acp_latency::stdev          nan                       # Histogram of ACP transaction total latency
system.cam_pipe_datapath.acp_latency::0             0                       # Histogram of ACP transaction total latency
system.cam_pipe_datapath.acp_latency::1             0                       # Histogram of ACP transaction total latency
system.cam_pipe_datapath.acp_latency::2             0                       # Histogram of ACP transaction total latency
system.cam_pipe_datapath.acp_latency::3             0                       # Histogram of ACP transaction total latency
system.cam_pipe_datapath.acp_latency::4             0                       # Histogram of ACP transaction total latency
system.cam_pipe_datapath.acp_latency::5             0                       # Histogram of ACP transaction total latency
system.cam_pipe_datapath.acp_latency::6             0                       # Histogram of ACP transaction total latency
system.cam_pipe_datapath.acp_latency::7             0                       # Histogram of ACP transaction total latency
system.cam_pipe_datapath.acp_latency::8             0                       # Histogram of ACP transaction total latency
system.cam_pipe_datapath.acp_latency::9             0                       # Histogram of ACP transaction total latency
system.cam_pipe_datapath.acp_latency::10            0                       # Histogram of ACP transaction total latency
system.cam_pipe_datapath.acp_latency::11            0                       # Histogram of ACP transaction total latency
system.cam_pipe_datapath.acp_latency::12            0                       # Histogram of ACP transaction total latency
system.cam_pipe_datapath.acp_latency::13            0                       # Histogram of ACP transaction total latency
system.cam_pipe_datapath.acp_latency::14            0                       # Histogram of ACP transaction total latency
system.cam_pipe_datapath.acp_latency::15            0                       # Histogram of ACP transaction total latency
system.cam_pipe_datapath.acp_latency::16            0                       # Histogram of ACP transaction total latency
system.cam_pipe_datapath.acp_latency::17            0                       # Histogram of ACP transaction total latency
system.cam_pipe_datapath.acp_latency::18            0                       # Histogram of ACP transaction total latency
system.cam_pipe_datapath.acp_latency::19            0                       # Histogram of ACP transaction total latency
system.cam_pipe_datapath.acp_latency::20            0                       # Histogram of ACP transaction total latency
system.cam_pipe_datapath.acp_latency::21            0                       # Histogram of ACP transaction total latency
system.cam_pipe_datapath.acp_latency::22            0                       # Histogram of ACP transaction total latency
system.cam_pipe_datapath.acp_latency::23            0                       # Histogram of ACP transaction total latency
system.cam_pipe_datapath.acp_latency::24            0                       # Histogram of ACP transaction total latency
system.cam_pipe_datapath.acp_latency::25            0                       # Histogram of ACP transaction total latency
system.cam_pipe_datapath.acp_latency::26            0                       # Histogram of ACP transaction total latency
system.cam_pipe_datapath.acp_latency::27            0                       # Histogram of ACP transaction total latency
system.cam_pipe_datapath.acp_latency::28            0                       # Histogram of ACP transaction total latency
system.cam_pipe_datapath.acp_latency::29            0                       # Histogram of ACP transaction total latency
system.cam_pipe_datapath.acp_latency::total            0                       # Histogram of ACP transaction total latency
system.cam_pipe_datapath.acp_queue_time::samples            0                       # Histogram of time ACP request spent in queue
system.cam_pipe_datapath.acp_queue_time::mean          nan                       # Histogram of time ACP request spent in queue
system.cam_pipe_datapath.acp_queue_time::gmean          nan                       # Histogram of time ACP request spent in queue
system.cam_pipe_datapath.acp_queue_time::stdev          nan                       # Histogram of time ACP request spent in queue
system.cam_pipe_datapath.acp_queue_time::0            0                       # Histogram of time ACP request spent in queue
system.cam_pipe_datapath.acp_queue_time::1            0                       # Histogram of time ACP request spent in queue
system.cam_pipe_datapath.acp_queue_time::2            0                       # Histogram of time ACP request spent in queue
system.cam_pipe_datapath.acp_queue_time::3            0                       # Histogram of time ACP request spent in queue
system.cam_pipe_datapath.acp_queue_time::4            0                       # Histogram of time ACP request spent in queue
system.cam_pipe_datapath.acp_queue_time::5            0                       # Histogram of time ACP request spent in queue
system.cam_pipe_datapath.acp_queue_time::6            0                       # Histogram of time ACP request spent in queue
system.cam_pipe_datapath.acp_queue_time::7            0                       # Histogram of time ACP request spent in queue
system.cam_pipe_datapath.acp_queue_time::8            0                       # Histogram of time ACP request spent in queue
system.cam_pipe_datapath.acp_queue_time::9            0                       # Histogram of time ACP request spent in queue
system.cam_pipe_datapath.acp_queue_time::10            0                       # Histogram of time ACP request spent in queue
system.cam_pipe_datapath.acp_queue_time::11            0                       # Histogram of time ACP request spent in queue
system.cam_pipe_datapath.acp_queue_time::12            0                       # Histogram of time ACP request spent in queue
system.cam_pipe_datapath.acp_queue_time::13            0                       # Histogram of time ACP request spent in queue
system.cam_pipe_datapath.acp_queue_time::14            0                       # Histogram of time ACP request spent in queue
system.cam_pipe_datapath.acp_queue_time::15            0                       # Histogram of time ACP request spent in queue
system.cam_pipe_datapath.acp_queue_time::16            0                       # Histogram of time ACP request spent in queue
system.cam_pipe_datapath.acp_queue_time::17            0                       # Histogram of time ACP request spent in queue
system.cam_pipe_datapath.acp_queue_time::18            0                       # Histogram of time ACP request spent in queue
system.cam_pipe_datapath.acp_queue_time::19            0                       # Histogram of time ACP request spent in queue
system.cam_pipe_datapath.acp_queue_time::20            0                       # Histogram of time ACP request spent in queue
system.cam_pipe_datapath.acp_queue_time::21            0                       # Histogram of time ACP request spent in queue
system.cam_pipe_datapath.acp_queue_time::22            0                       # Histogram of time ACP request spent in queue
system.cam_pipe_datapath.acp_queue_time::23            0                       # Histogram of time ACP request spent in queue
system.cam_pipe_datapath.acp_queue_time::24            0                       # Histogram of time ACP request spent in queue
system.cam_pipe_datapath.acp_queue_time::25            0                       # Histogram of time ACP request spent in queue
system.cam_pipe_datapath.acp_queue_time::26            0                       # Histogram of time ACP request spent in queue
system.cam_pipe_datapath.acp_queue_time::27            0                       # Histogram of time ACP request spent in queue
system.cam_pipe_datapath.acp_queue_time::28            0                       # Histogram of time ACP request spent in queue
system.cam_pipe_datapath.acp_queue_time::29            0                       # Histogram of time ACP request spent in queue
system.cam_pipe_datapath.acp_queue_time::total            0                       # Histogram of time ACP request spent in queue
system.cam_pipe_datapath.dma_setup_cycles            0                       # Total number of cycles spent on setting up DMA transfers.
system.cam_pipe_datapath.sim_cycles            409032                       # Total accelerator cycles
system.cam_pipe_datapath.tlb.hits                   0                       # TLB hits
system.cam_pipe_datapath.tlb.misses                 0                       # TLB misses
system.cam_pipe_datapath.tlb.reads                  0                       # TLB reads
system.cam_pipe_datapath.tlb.updates                0                       # TLB updates
system.cam_pipe_datapath.cache.prefetcher.pwrStateResidencyTicks::UNDEFINED  14809068400                       # Cumulative time (in ticks) in various power states
system.cam_pipe_datapath.cache.prefetcher.num_hwpf_issued           16                       # number of hwpf issued
system.cam_pipe_datapath.cache.prefetcher.pfIdentified           16                       # number of prefetch candidates identified
system.cam_pipe_datapath.cache.prefetcher.pfBufferHit            0                       # number of redundant prefetches already in prefetch queue
system.cam_pipe_datapath.cache.prefetcher.pfInCache            0                       # number of redundant prefetches already in cache/mshr dropped
system.cam_pipe_datapath.cache.prefetcher.pfRemovedFull            0                       # number of prefetches dropped due to prefetch queue size
system.cam_pipe_datapath.cache.prefetcher.pfSpanPage            0                       # number of prefetches not generated due to page crossing
system.cam_pipe_datapath.cache.tags.pwrStateResidencyTicks::UNDEFINED  14809068400                       # Cumulative time (in ticks) in various power states
system.cam_pipe_datapath.cache.tags.replacements            0                       # number of replacements
system.cam_pipe_datapath.cache.tags.tagsinuse     0.270467                       # Cycle average of tags in use
system.cam_pipe_datapath.cache.tags.total_refs            0                       # Total number of references to valid blocks.
system.cam_pipe_datapath.cache.tags.sampled_refs            0                       # Sample count of references to valid blocks.
system.cam_pipe_datapath.cache.tags.avg_refs          nan                       # Average number of references to valid blocks.
system.cam_pipe_datapath.cache.tags.warmup_cycle            0                       # Cycle when the warmup percentage was hit.
system.cam_pipe_datapath.cache.tags.occ_blocks::cam_pipe_datapath.cache     0.000015                       # Average occupied blocks per requestor
system.cam_pipe_datapath.cache.tags.occ_blocks::cam_pipe_datapath.cache.prefetcher     0.270453                       # Average occupied blocks per requestor
system.cam_pipe_datapath.cache.tags.occ_percent::cam_pipe_datapath.cache     0.000000                       # Average percentage of cache occupancy
system.cam_pipe_datapath.cache.tags.occ_percent::cam_pipe_datapath.cache.prefetcher     0.001056                       # Average percentage of cache occupancy
system.cam_pipe_datapath.cache.tags.occ_percent::total     0.001057                       # Average percentage of cache occupancy
system.cam_pipe_datapath.cache.tags.tag_accesses           13                       # Number of tag accesses
system.cam_pipe_datapath.cache.tags.data_accesses           13                       # Number of data accesses
system.cam_pipe_datapath.cache.pwrStateResidencyTicks::UNDEFINED  14809068400                       # Cumulative time (in ticks) in various power states
system.cam_pipe_datapath.cache.WriteReq_misses::cam_pipe_datapath.cache            2                       # number of WriteReq misses
system.cam_pipe_datapath.cache.WriteReq_misses::total            2                       # number of WriteReq misses
system.cam_pipe_datapath.cache.demand_misses::cam_pipe_datapath.cache            2                       # number of demand (read+write) misses
system.cam_pipe_datapath.cache.demand_misses::total            2                       # number of demand (read+write) misses
system.cam_pipe_datapath.cache.overall_misses::cam_pipe_datapath.cache            2                       # number of overall misses
system.cam_pipe_datapath.cache.overall_misses::total            2                       # number of overall misses
system.cam_pipe_datapath.cache.WriteReq_miss_latency::cam_pipe_datapath.cache        44000                       # number of WriteReq miss cycles
system.cam_pipe_datapath.cache.WriteReq_miss_latency::total        44000                       # number of WriteReq miss cycles
system.cam_pipe_datapath.cache.demand_miss_latency::cam_pipe_datapath.cache        44000                       # number of demand (read+write) miss cycles
system.cam_pipe_datapath.cache.demand_miss_latency::total        44000                       # number of demand (read+write) miss cycles
system.cam_pipe_datapath.cache.overall_miss_latency::cam_pipe_datapath.cache        44000                       # number of overall miss cycles
system.cam_pipe_datapath.cache.overall_miss_latency::total        44000                       # number of overall miss cycles
system.cam_pipe_datapath.cache.WriteReq_accesses::cam_pipe_datapath.cache            2                       # number of WriteReq accesses(hits+misses)
system.cam_pipe_datapath.cache.WriteReq_accesses::total            2                       # number of WriteReq accesses(hits+misses)
system.cam_pipe_datapath.cache.demand_accesses::cam_pipe_datapath.cache            2                       # number of demand (read+write) accesses
system.cam_pipe_datapath.cache.demand_accesses::total            2                       # number of demand (read+write) accesses
system.cam_pipe_datapath.cache.overall_accesses::cam_pipe_datapath.cache            2                       # number of overall (read+write) accesses
system.cam_pipe_datapath.cache.overall_accesses::total            2                       # number of overall (read+write) accesses
system.cam_pipe_datapath.cache.WriteReq_miss_rate::cam_pipe_datapath.cache            1                       # miss rate for WriteReq accesses
system.cam_pipe_datapath.cache.WriteReq_miss_rate::total            1                       # miss rate for WriteReq accesses
system.cam_pipe_datapath.cache.demand_miss_rate::cam_pipe_datapath.cache            1                       # miss rate for demand accesses
system.cam_pipe_datapath.cache.demand_miss_rate::total            1                       # miss rate for demand accesses
system.cam_pipe_datapath.cache.overall_miss_rate::cam_pipe_datapath.cache            1                       # miss rate for overall accesses
system.cam_pipe_datapath.cache.overall_miss_rate::total            1                       # miss rate for overall accesses
system.cam_pipe_datapath.cache.WriteReq_avg_miss_latency::cam_pipe_datapath.cache        22000                       # average WriteReq miss latency
system.cam_pipe_datapath.cache.WriteReq_avg_miss_latency::total        22000                       # average WriteReq miss latency
system.cam_pipe_datapath.cache.demand_avg_miss_latency::cam_pipe_datapath.cache        22000                       # average overall miss latency
system.cam_pipe_datapath.cache.demand_avg_miss_latency::total        22000                       # average overall miss latency
system.cam_pipe_datapath.cache.overall_avg_miss_latency::cam_pipe_datapath.cache        22000                       # average overall miss latency
system.cam_pipe_datapath.cache.overall_avg_miss_latency::total        22000                       # average overall miss latency
system.cam_pipe_datapath.cache.blocked_cycles::no_mshrs            0                       # number of cycles access was blocked
system.cam_pipe_datapath.cache.blocked_cycles::no_targets            0                       # number of cycles access was blocked
system.cam_pipe_datapath.cache.blocked::no_mshrs            0                       # number of cycles access was blocked
system.cam_pipe_datapath.cache.blocked::no_targets            0                       # number of cycles access was blocked
system.cam_pipe_datapath.cache.avg_blocked_cycles::no_mshrs          nan                       # average number of cycles each access was blocked
system.cam_pipe_datapath.cache.avg_blocked_cycles::no_targets          nan                       # average number of cycles each access was blocked
system.cam_pipe_datapath.cache.WriteReq_mshr_misses::cam_pipe_datapath.cache            2                       # number of WriteReq MSHR misses
system.cam_pipe_datapath.cache.WriteReq_mshr_misses::total            2                       # number of WriteReq MSHR misses
system.cam_pipe_datapath.cache.HardPFReq_mshr_misses::cam_pipe_datapath.cache.prefetcher            9                       # number of HardPFReq MSHR misses
system.cam_pipe_datapath.cache.HardPFReq_mshr_misses::total            9                       # number of HardPFReq MSHR misses
system.cam_pipe_datapath.cache.demand_mshr_misses::cam_pipe_datapath.cache            2                       # number of demand (read+write) MSHR misses
system.cam_pipe_datapath.cache.demand_mshr_misses::total            2                       # number of demand (read+write) MSHR misses
system.cam_pipe_datapath.cache.overall_mshr_misses::cam_pipe_datapath.cache            2                       # number of overall MSHR misses
system.cam_pipe_datapath.cache.overall_mshr_misses::cam_pipe_datapath.cache.prefetcher            9                       # number of overall MSHR misses
system.cam_pipe_datapath.cache.overall_mshr_misses::total           11                       # number of overall MSHR misses
system.cam_pipe_datapath.cache.WriteReq_mshr_miss_latency::cam_pipe_datapath.cache        40800                       # number of WriteReq MSHR miss cycles
system.cam_pipe_datapath.cache.WriteReq_mshr_miss_latency::total        40800                       # number of WriteReq MSHR miss cycles
system.cam_pipe_datapath.cache.HardPFReq_mshr_miss_latency::cam_pipe_datapath.cache.prefetcher       298791                       # number of HardPFReq MSHR miss cycles
system.cam_pipe_datapath.cache.HardPFReq_mshr_miss_latency::total       298791                       # number of HardPFReq MSHR miss cycles
system.cam_pipe_datapath.cache.demand_mshr_miss_latency::cam_pipe_datapath.cache        40800                       # number of demand (read+write) MSHR miss cycles
system.cam_pipe_datapath.cache.demand_mshr_miss_latency::total        40800                       # number of demand (read+write) MSHR miss cycles
system.cam_pipe_datapath.cache.overall_mshr_miss_latency::cam_pipe_datapath.cache        40800                       # number of overall MSHR miss cycles
system.cam_pipe_datapath.cache.overall_mshr_miss_latency::cam_pipe_datapath.cache.prefetcher       298791                       # number of overall MSHR miss cycles
system.cam_pipe_datapath.cache.overall_mshr_miss_latency::total       339591                       # number of overall MSHR miss cycles
system.cam_pipe_datapath.cache.WriteReq_mshr_miss_rate::cam_pipe_datapath.cache            1                       # mshr miss rate for WriteReq accesses
system.cam_pipe_datapath.cache.WriteReq_mshr_miss_rate::total            1                       # mshr miss rate for WriteReq accesses
system.cam_pipe_datapath.cache.HardPFReq_mshr_miss_rate::cam_pipe_datapath.cache.prefetcher          inf                       # mshr miss rate for HardPFReq accesses
system.cam_pipe_datapath.cache.HardPFReq_mshr_miss_rate::total          inf                       # mshr miss rate for HardPFReq accesses
system.cam_pipe_datapath.cache.demand_mshr_miss_rate::cam_pipe_datapath.cache            1                       # mshr miss rate for demand accesses
system.cam_pipe_datapath.cache.demand_mshr_miss_rate::total            1                       # mshr miss rate for demand accesses
system.cam_pipe_datapath.cache.overall_mshr_miss_rate::cam_pipe_datapath.cache            1                       # mshr miss rate for overall accesses
system.cam_pipe_datapath.cache.overall_mshr_miss_rate::cam_pipe_datapath.cache.prefetcher          inf                       # mshr miss rate for overall accesses
system.cam_pipe_datapath.cache.overall_mshr_miss_rate::total     5.500000                       # mshr miss rate for overall accesses
system.cam_pipe_datapath.cache.WriteReq_avg_mshr_miss_latency::cam_pipe_datapath.cache        20400                       # average WriteReq mshr miss latency
system.cam_pipe_datapath.cache.WriteReq_avg_mshr_miss_latency::total        20400                       # average WriteReq mshr miss latency
system.cam_pipe_datapath.cache.HardPFReq_avg_mshr_miss_latency::cam_pipe_datapath.cache.prefetcher        33199                       # average HardPFReq mshr miss latency
system.cam_pipe_datapath.cache.HardPFReq_avg_mshr_miss_latency::total        33199                       # average HardPFReq mshr miss latency
system.cam_pipe_datapath.cache.demand_avg_mshr_miss_latency::cam_pipe_datapath.cache        20400                       # average overall mshr miss latency
system.cam_pipe_datapath.cache.demand_avg_mshr_miss_latency::total        20400                       # average overall mshr miss latency
system.cam_pipe_datapath.cache.overall_avg_mshr_miss_latency::cam_pipe_datapath.cache        20400                       # average overall mshr miss latency
system.cam_pipe_datapath.cache.overall_avg_mshr_miss_latency::cam_pipe_datapath.cache.prefetcher        33199                       # average overall mshr miss latency
system.cam_pipe_datapath.cache.overall_avg_mshr_miss_latency::total 30871.909091                       # average overall mshr miss latency
system.cpu.branchPred.lookups                18303883                       # Number of BP lookups
system.cpu.branchPred.condPredicted          18303883                       # Number of conditional branches predicted
system.cpu.branchPred.condIncorrect            953931                       # Number of conditional branches incorrect
system.cpu.branchPred.BTBLookups             16342260                       # Number of BTB lookups
system.cpu.branchPred.BTBHits                       0                       # Number of BTB hits
system.cpu.branchPred.BTBCorrect                    0                       # Number of correct BTB predictions (this stat may not work properly.
system.cpu.branchPred.BTBHitPct              0.000000                       # BTB Hit Percentage
system.cpu.branchPred.usedRAS                  657544                       # Number of times the RAS was used to get a target.
system.cpu.branchPred.RASInCorrect             104229                       # Number of incorrect RAS predictions.
system.cpu.branchPred.indirectLookups        16342260                       # Number of indirect predictor lookups.
system.cpu.branchPred.indirectHits            9009383                       # Number of indirect target hits.
system.cpu.branchPred.indirectMisses          7332877                       # Number of indirect misses.
system.cpu.branchPredindirectMispredicted       580159                       # Number of mispredicted indirect branches.
system.cpu_clk_domain.clock                       400                       # Clock period in ticks
system.cpu.dtb.walker.pwrStateResidencyTicks::UNDEFINED  14809068400                       # Cumulative time (in ticks) in various power states
system.cpu.dtb.rdAccesses                     8581526                       # TLB accesses on read requests
system.cpu.dtb.wrAccesses                     5171465                       # TLB accesses on write requests
system.cpu.dtb.rdMisses                         95435                       # TLB misses on read requests
system.cpu.dtb.wrMisses                         14021                       # TLB misses on write requests
system.cpu.apic_clk_domain.clock                 6400                       # Clock period in ticks
system.cpu.interrupts.pwrStateResidencyTicks::UNDEFINED  14809068400                       # Cumulative time (in ticks) in various power states
system.cpu.itb.walker.pwrStateResidencyTicks::UNDEFINED  14809068400                       # Cumulative time (in ticks) in various power states
system.cpu.itb.rdAccesses                           0                       # TLB accesses on read requests
system.cpu.itb.wrAccesses                     8327649                       # TLB accesses on write requests
system.cpu.itb.rdMisses                             0                       # TLB misses on read requests
system.cpu.itb.wrMisses                          5705                       # TLB misses on write requests
system.cpu.workload.numSyscalls                   224                       # Number of system calls
system.cpu.pwrStateResidencyTicks::ON     14809068400                       # Cumulative time (in ticks) in various power states
system.cpu.numCycles                         37022672                       # number of cpu cycles simulated
system.cpu.numWorkItemsStarted                      0                       # number of work items this cpu started
system.cpu.numWorkItemsCompleted                    0                       # number of work items this cpu completed
system.cpu.fetch.icacheStallCycles           11471081                       # Number of cycles fetch is stalled on an Icache miss
system.cpu.fetch.Insts                       60545698                       # Number of instructions fetch has processed
system.cpu.fetch.Branches                    18303883                       # Number of branches that fetch encountered
system.cpu.fetch.predictedBranches            9666927                       # Number of branches that fetch has predicted taken
system.cpu.fetch.Cycles                      22542272                       # Number of cycles fetch has run and was not squashing or blocked
system.cpu.fetch.SquashCycles                 1914748                       # Number of cycles fetch has spent squashing
system.cpu.fetch.MiscStallCycles                 2849                       # Number of cycles fetch has spent waiting on interrupts, or bad addresses, or out of MSHRs
system.cpu.fetch.PendingTrapStallCycles         26516                       # Number of stall cycles due to pending traps
system.cpu.fetch.PendingQuiesceStallCycles         7401                       # Number of stall cycles due to pending quiesce instructions
system.cpu.fetch.CacheLines                   8322240                       # Number of cache lines fetched
system.cpu.fetch.IcacheSquashes                251162                       # Number of outstanding Icache misses that were squashed
system.cpu.fetch.rateDist::samples           35007493                       # Number of instructions fetched each cycle (Total)
system.cpu.fetch.rateDist::mean              3.782195                       # Number of instructions fetched each cycle (Total)
system.cpu.fetch.rateDist::stdev             3.588749                       # Number of instructions fetched each cycle (Total)
system.cpu.fetch.rateDist::underflows               0      0.00%      0.00% # Number of instructions fetched each cycle (Total)
system.cpu.fetch.rateDist::0                 14451802     41.28%     41.28% # Number of instructions fetched each cycle (Total)
system.cpu.fetch.rateDist::1                   886638      2.53%     43.81% # Number of instructions fetched each cycle (Total)
system.cpu.fetch.rateDist::2                   766945      2.19%     46.01% # Number of instructions fetched each cycle (Total)
system.cpu.fetch.rateDist::3                  1418411      4.05%     50.06% # Number of instructions fetched each cycle (Total)
system.cpu.fetch.rateDist::4                   999402      2.85%     52.91% # Number of instructions fetched each cycle (Total)
system.cpu.fetch.rateDist::5                  2341325      6.69%     59.60% # Number of instructions fetched each cycle (Total)
system.cpu.fetch.rateDist::6                  1016494      2.90%     62.50% # Number of instructions fetched each cycle (Total)
system.cpu.fetch.rateDist::7                  1085603      3.10%     65.60% # Number of instructions fetched each cycle (Total)
system.cpu.fetch.rateDist::8                 12040873     34.40%    100.00% # Number of instructions fetched each cycle (Total)
system.cpu.fetch.rateDist::overflows                0      0.00%    100.00% # Number of instructions fetched each cycle (Total)
system.cpu.fetch.rateDist::min_value                0                       # Number of instructions fetched each cycle (Total)
system.cpu.fetch.rateDist::max_value                8                       # Number of instructions fetched each cycle (Total)
system.cpu.fetch.rateDist::total             35007493                       # Number of instructions fetched each cycle (Total)
system.cpu.fetch.branchRate                  0.494397                       # Number of branch fetches per cycle
system.cpu.fetch.rate                        1.635368                       # Number of inst fetches per cycle
system.cpu.decode.IdleCycles                 10449826                       # Number of cycles decode is idle
system.cpu.decode.BlockedCycles               4936088                       # Number of cycles decode is blocked
system.cpu.decode.RunCycles                  17210770                       # Number of cycles decode is running
system.cpu.decode.UnblockCycles               1453435                       # Number of cycles decode is unblocking
system.cpu.decode.SquashCycles                 957374                       # Number of cycles decode is squashing
system.cpu.decode.DecodedInsts              123663793                       # Number of instructions handled by decode
system.cpu.rename.SquashCycles                 957374                       # Number of cycles rename is squashing
system.cpu.rename.IdleCycles                 11218000                       # Number of cycles rename is idle
system.cpu.rename.BlockCycles                 3735350                       # Number of cycles rename is blocking
system.cpu.rename.serializeStallCycles          11932                       # count of cycles rename stalled for serializing inst
system.cpu.rename.RunCycles                  17688504                       # Number of cycles rename is running
system.cpu.rename.UnblockCycles               1396333                       # Number of cycles rename is unblocking
system.cpu.rename.RenamedInsts              118961892                       # Number of instructions processed by rename
system.cpu.rename.ROBFullEvents                  4447                       # Number of times rename has blocked due to ROB full
system.cpu.rename.IQFullEvents                1056674                       # Number of times rename has blocked due to IQ full
system.cpu.rename.LQFullEvents                   7290                       # Number of times rename has blocked due to LQ full
system.cpu.rename.SQFullEvents                 180809                       # Number of times rename has blocked due to SQ full
system.cpu.rename.RenamedOperands           140614142                       # Number of destination operands rename has renamed
system.cpu.rename.RenameLookups             319215255                       # Number of register rename lookups that rename has made
system.cpu.rename.int_rename_lookups        184128037                       # Number of integer rename lookups
system.cpu.rename.fp_rename_lookups           2716290                       # Number of floating rename lookups
system.cpu.rename.CommittedMaps              92147428                       # Number of HB maps that are committed
system.cpu.rename.UndoneMaps                 48466682                       # Number of HB maps that are undone due to squashing
system.cpu.rename.serializingInsts                646                       # count of serializing insts renamed
system.cpu.rename.tempSerializingInsts            672                       # count of temporary serializing insts renamed
system.cpu.rename.skidInsts                   3913280                       # count of insts added to the skid buffer
system.cpu.memDep0.insertedLoads             10165828                       # Number of loads inserted to the mem dependence unit.
system.cpu.memDep0.insertedStores             6628787                       # Number of stores inserted to the mem dependence unit.
system.cpu.memDep0.conflictingLoads            228833                       # Number of conflicting loads.
system.cpu.memDep0.conflictingStores            63359                       # Number of conflicting stores.
system.cpu.iq.iqInstsAdded                  110678330                       # Number of instructions added to the IQ (excludes non-spec)
system.cpu.iq.iqNonSpecInstsAdded               23760                       # Number of non-speculative instructions added to the IQ
system.cpu.iq.iqInstsIssued                  96626448                       # Number of instructions issued
system.cpu.iq.iqSquashedInstsIssued            401645                       # Number of squashed instructions issued
system.cpu.iq.iqSquashedInstsExamined        31992241                       # Number of squashed instructions iterated over during squash; mainly for profiling
system.cpu.iq.iqSquashedOperandsExamined     59951360                       # Number of squashed operands that are examined and possibly removed from graph
system.cpu.iq.iqSquashedNonSpecRemoved          22725                       # Number of squashed non-spec instructions that were removed
system.cpu.iq.issued_per_cycle::samples      35007493                       # Number of insts issued each cycle
system.cpu.iq.issued_per_cycle::mean         2.760165                       # Number of insts issued each cycle
system.cpu.iq.issued_per_cycle::stdev        2.403040                       # Number of insts issued each cycle
[...]
system.smv_datapath.dcache_queue_time::16            0                       # Histogram of time dcache request spent in queue
system.smv_datapath.dcache_queue_time::17            0                       # Histogram of time dcache request spent in queue
system.smv_datapath.dcache_queue_time::18            0                       # Histogram of time dcache request spent in queue
system.smv_datapath.dcache_queue_time::19            0                       # Histogram of time dcache request spent in queue
system.smv_datapath.dcache_queue_time::20            0                       # Histogram of time dcache request spent in queue
system.smv_datapath.dcache_queue_time::21            0                       # Histogram of time dcache request spent in queue
system.smv_datapath.dcache_queue_time::22            0                       # Histogram of time dcache request spent in queue
system.smv_datapath.dcache_queue_time::23            0                       # Histogram of time dcache request spent in queue
system.smv_datapath.dcache_queue_time::24            0                       # Histogram of time dcache request spent in queue
system.smv_datapath.dcache_queue_time::25            0                       # Histogram of time dcache request spent in queue
system.smv_datapath.dcache_queue_time::26            0                       # Histogram of time dcache request spent in queue
system.smv_datapath.dcache_queue_time::27            0                       # Histogram of time dcache request spent in queue
system.smv_datapath.dcache_queue_time::28            0                       # Histogram of time dcache request spent in queue
system.smv_datapath.dcache_queue_time::29            0                       # Histogram of time dcache request spent in queue
system.smv_datapath.dcache_queue_time::total            0                       # Histogram of time dcache request spent in queue
system.smv_datapath.total_acp_loads                 0                       # Total number of ACP loads
system.smv_datapath.total_acp_stores                0                       # Total number of ACP stores.
system.smv_datapath.acp_latency::samples            0                       # Histogram of ACP transaction total latency
system.smv_datapath.acp_latency::mean             nan                       # Histogram of ACP transaction total latency
system.smv_datapath.acp_latency::gmean            nan                       # Histogram of ACP transaction total latency
system.smv_datapath.acp_latency::stdev            nan                       # Histogram of ACP transaction total latency
system.smv_datapath.acp_latency::0                  0                       # Histogram of ACP transaction total latency
system.smv_datapath.acp_latency::1                  0                       # Histogram of ACP transaction total latency
system.smv_datapath.acp_latency::2                  0                       # Histogram of ACP transaction total latency
system.smv_datapath.acp_latency::3                  0                       # Histogram of ACP transaction total latency
system.smv_datapath.acp_latency::4                  0                       # Histogram of ACP transaction total latency
system.smv_datapath.acp_latency::5                  0                       # Histogram of ACP transaction total latency
system.smv_datapath.acp_latency::6                  0                       # Histogram of ACP transaction total latency
system.smv_datapath.acp_latency::7                  0                       # Histogram of ACP transaction total latency
system.smv_datapath.acp_latency::8                  0                       # Histogram of ACP transaction total latency
system.smv_datapath.acp_latency::9                  0                       # Histogram of ACP transaction total latency
system.smv_datapath.acp_latency::10                 0                       # Histogram of ACP transaction total latency
system.smv_datapath.acp_latency::11                 0                       # Histogram of ACP transaction total latency
system.smv_datapath.acp_latency::12                 0                       # Histogram of ACP transaction total latency
system.smv_datapath.acp_latency::13                 0                       # Histogram of ACP transaction total latency
system.smv_datapath.acp_latency::14                 0                       # Histogram of ACP transaction total latency
system.smv_datapath.acp_latency::15                 0                       # Histogram of ACP transaction total latency
system.smv_datapath.acp_latency::16                 0                       # Histogram of ACP transaction total latency
system.smv_datapath.acp_latency::17                 0                       # Histogram of ACP transaction total latency
system.smv_datapath.acp_latency::18                 0                       # Histogram of ACP transaction total latency
system.smv_datapath.acp_latency::19                 0                       # Histogram of ACP transaction total latency
system.smv_datapath.acp_latency::20                 0                       # Histogram of ACP transaction total latency
system.smv_datapath.acp_latency::21                 0                       # Histogram of ACP transaction total latency
system.smv_datapath.acp_latency::22                 0                       # Histogram of ACP transaction total latency
system.smv_datapath.acp_latency::23                 0                       # Histogram of ACP transaction total latency
system.smv_datapath.acp_latency::24                 0                       # Histogram of ACP transaction total latency
system.smv_datapath.acp_latency::25                 0                       # Histogram of ACP transaction total latency
system.smv_datapath.acp_latency::26                 0                       # Histogram of ACP transaction total latency
system.smv_datapath.acp_latency::27                 0                       # Histogram of ACP transaction total latency
system.smv_datapath.acp_latency::28                 0                       # Histogram of ACP transaction total latency
system.smv_datapath.acp_latency::29                 0                       # Histogram of ACP transaction total latency
system.smv_datapath.acp_latency::total              0                       # Histogram of ACP transaction total latency
system.smv_datapath.acp_queue_time::samples            0                       # Histogram of time ACP request spent in queue
system.smv_datapath.acp_queue_time::mean          nan                       # Histogram of time ACP request spent in queue
system.smv_datapath.acp_queue_time::gmean          nan                       # Histogram of time ACP request spent in queue
system.smv_datapath.acp_queue_time::stdev          nan                       # Histogram of time ACP request spent in queue
system.smv_datapath.acp_queue_time::0               0                       # Histogram of time ACP request spent in queue
system.smv_datapath.acp_queue_time::1               0                       # Histogram of time ACP request spent in queue
system.smv_datapath.acp_queue_time::2               0                       # Histogram of time ACP request spent in queue
system.smv_datapath.acp_queue_time::3               0                       # Histogram of time ACP request spent in queue
system.smv_datapath.acp_queue_time::4               0                       # Histogram of time ACP request spent in queue
system.smv_datapath.acp_queue_time::5               0                       # Histogram of time ACP request spent in queue
system.smv_datapath.acp_queue_time::6               0                       # Histogram of time ACP request spent in queue
system.smv_datapath.acp_queue_time::7               0                       # Histogram of time ACP request spent in queue
system.smv_datapath.acp_queue_time::8               0                       # Histogram of time ACP request spent in queue
system.smv_datapath.acp_queue_time::9               0                       # Histogram of time ACP request spent in queue
system.smv_datapath.acp_queue_time::10              0                       # Histogram of time ACP request spent in queue
system.smv_datapath.acp_queue_time::11              0                       # Histogram of time ACP request spent in queue
system.smv_datapath.acp_queue_time::12              0                       # Histogram of time ACP request spent in queue
system.smv_datapath.acp_queue_time::13              0                       # Histogram of time ACP request spent in queue
system.smv_datapath.acp_queue_time::14              0                       # Histogram of time ACP request spent in queue
system.smv_datapath.acp_queue_time::15              0                       # Histogram of time ACP request spent in queue
system.smv_datapath.acp_queue_time::16              0                       # Histogram of time ACP request spent in queue
system.smv_datapath.acp_queue_time::17              0                       # Histogram of time ACP request spent in queue
system.smv_datapath.acp_queue_time::18              0                       # Histogram of time ACP request spent in queue
system.smv_datapath.acp_queue_time::19              0                       # Histogram of time ACP request spent in queue
system.smv_datapath.acp_queue_time::20              0                       # Histogram of time ACP request spent in queue
system.smv_datapath.acp_queue_time::21              0                       # Histogram of time ACP request spent in queue
system.smv_datapath.acp_queue_time::22              0                       # Histogram of time ACP request spent in queue
system.smv_datapath.acp_queue_time::23              0                       # Histogram of time ACP request spent in queue
system.smv_datapath.acp_queue_time::24              0                       # Histogram of time ACP request spent in queue
system.smv_datapath.acp_queue_time::25              0                       # Histogram of time ACP request spent in queue
system.smv_datapath.acp_queue_time::26              0                       # Histogram of time ACP request spent in queue
system.smv_datapath.acp_queue_time::27              0                       # Histogram of time ACP request spent in queue
system.smv_datapath.acp_queue_time::28              0                       # Histogram of time ACP request spent in queue
system.smv_datapath.acp_queue_time::29              0                       # Histogram of time ACP request spent in queue
system.smv_datapath.acp_queue_time::total            0                       # Histogram of time ACP request spent in queue
system.smv_datapath.dma_setup_cycles                0                       # Total number of cycles spent on setting up DMA transfers.
system.smv_datapath.sim_cycles                      0                       # Total accelerator cycles
system.smv_datapath.tlb.hits                        0                       # TLB hits
system.smv_datapath.tlb.misses                      0                       # TLB misses
system.smv_datapath.tlb.reads                       0                       # TLB reads
system.smv_datapath.tlb.updates                     0                       # TLB updates
system.smv_datapath.cache.prefetcher.pwrStateResidencyTicks::UNDEFINED  14809068400                       # Cumulative time (in ticks) in various power states
system.smv_datapath.cache.prefetcher.num_hwpf_issued            0                       # number of hwpf issued
system.smv_datapath.cache.prefetcher.pfIdentified            0                       # number of prefetch candidates identified
system.smv_datapath.cache.prefetcher.pfBufferHit            0                       # number of redundant prefetches already in prefetch queue
system.smv_datapath.cache.prefetcher.pfInCache            0                       # number of redundant prefetches already in cache/mshr dropped
system.smv_datapath.cache.prefetcher.pfRemovedFull            0                       # number of prefetches dropped due to prefetch queue size
system.smv_datapath.cache.prefetcher.pfSpanPage            0                       # number of prefetches not generated due to page crossing
system.smv_datapath.cache.tags.pwrStateResidencyTicks::UNDEFINED  14809068400                       # Cumulative time (in ticks) in various power states
system.smv_datapath.cache.tags.replacements            0                       # number of replacements
system.smv_datapath.cache.tags.tagsinuse            0                       # Cycle average of tags in use
system.smv_datapath.cache.tags.total_refs            0                       # Total number of references to valid blocks.
system.smv_datapath.cache.tags.sampled_refs            0                       # Sample count of references to valid blocks.
system.smv_datapath.cache.tags.avg_refs           nan                       # Average number of references to valid blocks.
system.smv_datapath.cache.tags.warmup_cycle            0                       # Cycle when the warmup percentage was hit.
system.smv_datapath.cache.tags.tag_accesses            0                       # Number of tag accesses
system.smv_datapath.cache.tags.data_accesses            0                       # Number of data accesses
system.smv_datapath.cache.pwrStateResidencyTicks::UNDEFINED  14809068400                       # Cumulative time (in ticks) in various power states
system.smv_datapath.cache.blocked_cycles::no_mshrs            0                       # number of cycles access was blocked
system.smv_datapath.cache.blocked_cycles::no_targets            0                       # number of cycles access was blocked
system.smv_datapath.cache.blocked::no_mshrs            0                       # number of cycles access was blocked
system.smv_datapath.cache.blocked::no_targets            0                       # number of cycles access was blocked
system.smv_datapath.cache.avg_blocked_cycles::no_mshrs          nan                       # average number of cycles each access was blocked
system.smv_datapath.cache.avg_blocked_cycles::no_targets          nan                       # average number of cycles each access was blocked
system.tol2bus.snoop_filter.tot_requests      1796395                       # Total number of requests made to the snoop filter.
system.tol2bus.snoop_filter.hit_single_requests       897378                       # Number of requests hitting in the snoop filter with a single holder of the requested data.
system.tol2bus.snoop_filter.hit_multi_requests        70076                       # Number of requests hitting in the snoop filter with multiple (>1) holders of the requested data.
system.tol2bus.snoop_filter.tot_snoops            120                       # Total number of snoops made to the snoop filter.
system.tol2bus.snoop_filter.hit_single_snoops          120                       # Number of snoops hitting in the snoop filter with a single holder of the requested data.
system.tol2bus.snoop_filter.hit_multi_snoops            0                       # Number of snoops hitting in the snoop filter with multiple (>1) holders of the requested data.
system.tol2bus.pwrStateResidencyTicks::UNDEFINED  14809068400                       # Cumulative time (in ticks) in various power states
system.tol2bus.trans_dist::ReadReq                146                       # Transaction distribution
system.tol2bus.trans_dist::ReadResp            898302                       # Transaction distribution
system.tol2bus.trans_dist::WriteReq                13                       # Transaction distribution
system.tol2bus.trans_dist::WritebackDirty        16809                       # Transaction distribution
system.tol2bus.trans_dist::CleanEvict          880457                       # Transaction distribution
system.tol2bus.trans_dist::HardPFReq            14104                       # Transaction distribution
system.tol2bus.trans_dist::UpgradeReq              16                       # Transaction distribution
system.tol2bus.trans_dist::UpgradeResp             16                       # Transaction distribution
system.tol2bus.trans_dist::ReadExReq              576                       # Transaction distribution
system.tol2bus.trans_dist::ReadExResp             576                       # Transaction distribution
system.tol2bus.trans_dist::ReadSharedReq       898265                       # Transaction distribution
system.tol2bus.trans_dist::InvalidateReq           14                       # Transaction distribution
system.tol2bus.trans_dist::InvalidateResp            1                       # Transaction distribution
system.tol2bus.pkt_count_system.cpu.icache.mem_side::system.l2.cpu_side      2563195                       # Packet count per connected master and slave (bytes)
system.tol2bus.pkt_count_system.cpu.dcache.mem_side::system.l2.cpu_side       131791                       # Packet count per connected master and slave (bytes)
system.tol2bus.pkt_count::total               2694986                       # Packet count per connected master and slave (bytes)
system.tol2bus.pkt_size_system.cpu.icache.mem_side::system.l2.cpu_side     54691456                       # Cumulative packet size per connected master and slave (bytes)
system.tol2bus.pkt_size_system.cpu.dcache.mem_side::system.l2.cpu_side      3911124                       # Cumulative packet size per connected master and slave (bytes)
system.tol2bus.pkt_size::total               58602580                       # Cumulative packet size per connected master and slave (bytes)
system.tol2bus.snoops                           14368                       # Total snoops (count)
system.tol2bus.snoopTraffic                      5844                       # Total snoop traffic (bytes)
system.tol2bus.snoop_fanout::samples           913323                       # Request fanout histogram
system.tol2bus.snoop_fanout::mean            0.076860                       # Request fanout histogram
system.tol2bus.snoop_fanout::stdev           0.266369                       # Request fanout histogram
system.tol2bus.snoop_fanout::underflows             0      0.00%      0.00% # Request fanout histogram
system.tol2bus.snoop_fanout::0                 843125     92.31%     92.31% # Request fanout histogram
system.tol2bus.snoop_fanout::1                  70198      7.69%    100.00% # Request fanout histogram
system.tol2bus.snoop_fanout::2                      0      0.00%    100.00% # Request fanout histogram
system.tol2bus.snoop_fanout::3                      0      0.00%    100.00% # Request fanout histogram
system.tol2bus.snoop_fanout::4                      0      0.00%    100.00% # Request fanout histogram
system.tol2bus.snoop_fanout::overflows              0      0.00%    100.00% # Request fanout histogram
system.tol2bus.snoop_fanout::min_value              0                       # Request fanout histogram
system.tol2bus.snoop_fanout::max_value              1                       # Request fanout histogram
system.tol2bus.snoop_fanout::total             913323                       # Request fanout histogram
system.tol2bus.reqLayer0.occupancy         1594360011                       # Layer occupancy (ticks)
system.tol2bus.reqLayer0.utilization             10.8                       # Layer utilization (%)
system.tol2bus.snoopLayer0.occupancy           163400                       # Layer occupancy (ticks)
system.tol2bus.snoopLayer0.utilization            0.0                       # Layer utilization (%)
system.tol2bus.respLayer0.occupancy        2089695160                       # Layer occupancy (ticks)
system.tol2bus.respLayer0.utilization            14.1                       # Layer utilization (%)
system.tol2bus.respLayer1.occupancy         108856385                       # Layer occupancy (ticks)
system.tol2bus.respLayer1.utilization             0.7                       # Layer utilization (%)

---------- End Simulation Statistics   ----------
